1

                    Execution started at 20220224.111256         



                    ---------------------------------------
                                     SWAN
                    SIMULATION OF WAVES IN NEAR SHORE AREAS
                             VERSION NUMBER 41.31A              
                    ---------------------------------------


    
 PROJ 'Coorong_swn_20191101_20220101_UA_Wind_200g_2000w' 'v1'
 ** Error            : too long string given for: NAME                                    
 name=NAME string=Coorong_swn_20191101_20220101_UA_Wind_200g_2000w
    
 
    
 SET   0.5  90   0.05   200     2    9.81  1012   99999   0     0.1    NAUTical  4       0.8     4      4
 ** Error            : Wrong type of data for variable INRHOG                                  
 ->   INRHOG  item read=0.1
    
 $    level  nor depmin maxmes maxerr grav  rho      cdcap inrhog hsrerr           pwtail froudmax printf prtest
    
 
    
 MODE NONSTATIONARY
    
 COORD CARTESIAN
    
 
    
 CGRID REGular  299594.000  5985647.000   .0   85000  82600  424  412  CIRCLE  36  0.2  2.  27
 Resolution in sigma-space: df/f =  0.0890
    
 
    
 INPgrid BOTTOM   299594.000  5985647.000  .0    424  412   200   200   EXC -999.9
    
 
    
 READINP BOTTOM -1.0 '..\01_geometry\Bathymetry.dat'  1   0   FREE
    
 
    
 INPGRID Wind REG 299594.000  5985647.000  0    42  41   2000   2000 NONSTATIONARY 20191101 10800.00 SEC 20220101
    
 
    
 READINP Wind 1  SERIES 'Wind_Map_Series.txt' 1 0 FREE
    
 
    
 
    
 GEN3 KOMEN
    
 BREAKING CON alpha=1.0 gamma=0.73
    
 FRICTION MADSEN 0.05
    
 TRIAD
    
 WCAPping KOMen
    
 PROP BSBT
    
 FRAME 'SWAN' 299594 5985647  16.0 85000 82600  424  412
    
 BLOCK 'COMPGRID' NOHEADER '..\04_results\WAVE.nc' &
 HSIGN TPS PDIR UBOT WIND DEPTH OUTPUT 20191101 3600 SEC
    
 TEST 1 0
    
 COMPUTE NONSTAT 20191101  3600 SEC 20220101
 ** Warning          : (corner)point outside bottom grid
       Set of output locations: SWAN      coordinates: 276826.346065047.00
 ** Warning          : (corner)point outside comp. grid
       Set of output locations: SWAN      coordinates: 276826.346065047.00
 ** Warning          : (corner)point outside bottom grid
       Set of output locations: SWAN      coordinates: 358533.596088476.50
 ** Warning          : (corner)point outside comp. grid
       Set of output locations: SWAN      coordinates: 358533.596088476.50
 Time of computation ->  20191101.010000      in sec:       3600.

----------------------------------------------------------------
                  COMPUTATIONAL PART OF SWAN
----------------------------------------------------------------

 Gridresolution       : MXC             425 MYC            413
                      : MCGRD        175526
                      : MSC              28 MDC             36
                      : MTC           19008
                      : NSTATC            1 ITERMX           1
 Propagation flags    : ITFRE             1 IREFR            1
 Source term flags    : IBOT              3 ISURF            1
                      : IWCAP             1 IWIND            3
                      : ITRIAD           11 IQUAD            2
                      : IVEG              0 ITURBV           0
                      : IMUD              0 IICE             0
 Spatial step         : DX       0.2005E+03 DY      0.2005E+03
 Spectral bin         : df/f     0.8902E-01 DDIR    0.1000E+02
 Physical constants   : GRAV     0.9810E+01 RHO     0.1012E+04
 Wind input           : WSPEED   0.0000E+00 DIR     0.0000E+00
                      : ICEWIND  4.00
 Tail parameters      : E(f)     0.4000E+01 E(k)    0.2500E+01
                      : A(f)     0.5000E+01 A(k)    0.3000E+01
 Accuracy parameters  : DREL     0.1000E-01 NPNTS   0.9950E+02
                      : DHABS    0.5000E-02 CURVAT  0.5000E-02
                      : GRWMX    0.1000E+00
 Drying/flooding      : LEVEL    0.5000E+00 DEPMIN  0.5000E-01
 The nautical  convention for wind and wave directions is used
 Scheme for geographic propagation is BSBT  
 Scheme geogr. space  : PROPSC            1 ICMAX            5
 Scheme spectral space: CSS      0.5000E+00 CDD     0.5000E+00
 Current is off
 Quadruplets          : IQUAD             2
                      : LAMBDA   0.2500E+00 CNL4    0.3000E+08
                      : CSH1     0.5500E+01 CSH2    0.8330E+00
                      : CSH3    -0.1250E+01
 Maximum Ursell nr for Snl4 :    0.1000E+02
 Triads               : ITRIAD           11 TRFAC   0.5000E-01
                      : CUTFR    0.2500E+01 URCRI   0.2000E+00
 Minimum Ursell nr for Snl3 :    0.1000E-01
 Madsen et al. (`84)  : MF      -0.8000E-01 KN      0.5000E-01
 Vegetation is off
 Turbulence is off
 Fluid mud is off
 Dissipation by sea ice is off
 W-cap Komen (`84)    : EMPCOF (CDS2):   0.2360E-04
 W-cap Komen (`84)    : APM (STPM)   :   0.3020E-02
 W-cap Komen (`84)    : POWST        :   0.2000E+01
 W-cap Komen (`84)    : DELTA        :   0.1000E+01
 W-cap Komen (`84)    : POWK         :   0.1000E+01
 Wind drag is fit
 Snyder/Komen wind input
 Battjes&Janssen (`78): ALPHA    0.1000E+01 GAMMA   0.7300E+00
 Set-up is off
 Diffraction is off
 Janssen (`89,`90)    : ALPHA    0.1000E-01 KAPPA   0.4100E+00
 Janssen (`89,`90)    : RHOA     0.1280E+01 RHOW    0.1012E+04
 
 1st and 2nd gen. wind: CF10     0.1880E+03 CF20    0.5900E+00
                      : CF30     0.1200E+00 CF40    0.2500E+03
                      : CF50     0.2300E-02 CF60   -0.2230E+00
                      : CF70     0.0000E+00 CF80   -0.5600E+00
                      : RHOAW    0.1265E-02 EDMLPM  0.3600E-02
                      : CDRAG    0.1230E-02 UMIN    0.1000E+01
                      : LIM_PM   0.1300E+00
 
 not possible to compute, first iteration

 
 Time of computation ->  20191101.020000      in sec:       7200.
 not possible to compute, first iteration

 
 Time of computation ->  20191101.030000      in sec:      10800.
 not possible to compute, first iteration

 
 Time of computation ->  20191101.040000      in sec:      14400.
 not possible to compute, first iteration

 
 Time of computation ->  20191101.050000      in sec:      18000.
 not possible to compute, first iteration

 
 Time of computation ->  20191101.060000      in sec:      21600.
 not possible to compute, first iteration

 
 Time of computation ->  20191101.070000      in sec:      25200.
 not possible to compute, first iteration

 
 Time of computation ->  20191101.080000      in sec:      28800.
 not possible to compute, first iteration

 
 Time of computation ->  20191101.090000      in sec:      32400.
 not possible to compute, first iteration

 
 Time of computation ->  20191101.100000      in sec:      36000.
 not possible to compute, first iteration

 
 Time of computation ->  20191101.110000      in sec:      39600.
 not possible to compute, first iteration

 
 Time of computation ->  20191101.120000      in sec:      43200.
 not possible to compute, first iteration

 
 Time of computation ->  20191101.130000      in sec:      46800.
 not possible to compute, first iteration

 
 Time of computation ->  20191101.140000      in sec:      50400.
 not possible to compute, first iteration

 
 Time of computation ->  20191101.150000      in sec:      54000.
 not possible to compute, first iteration

 
 Time of computation ->  20191101.160000      in sec:      57600.
 not possible to compute, first iteration

 
 Time of computation ->  20191101.170000      in sec:      61200.
 not possible to compute, first iteration

 
 Time of computation ->  20191101.180000      in sec:      64800.
 not possible to compute, first iteration

 
 Time of computation ->  20191101.190000      in sec:      68400.
 not possible to compute, first iteration

 
 Time of computation ->  20191101.200000      in sec:      72000.
 not possible to compute, first iteration

 
 Time of computation ->  20191101.210000      in sec:      75600.
 not possible to compute, first iteration

 
 Time of computation ->  20191101.220000      in sec:      79200.
 not possible to compute, first iteration

 
 Time of computation ->  20191101.230000      in sec:      82800.
 not possible to compute, first iteration

 
 Time of computation ->  20191102.000000      in sec:      86400.
 not possible to compute, first iteration

 
 Time of computation ->  20191102.010000      in sec:      90000.
 not possible to compute, first iteration

 
 Time of computation ->  20191102.020000      in sec:      93600.
 not possible to compute, first iteration

 
 Time of computation ->  20191102.030000      in sec:      97200.
 not possible to compute, first iteration

 
 Time of computation ->  20191102.040000      in sec:     100800.
 not possible to compute, first iteration

 
 Time of computation ->  20191102.050000      in sec:     104400.
 not possible to compute, first iteration

 
 Time of computation ->  20191102.060000      in sec:     108000.
 not possible to compute, first iteration

 
 Time of computation ->  20191102.070000      in sec:     111600.
 not possible to compute, first iteration

 
 Time of computation ->  20191102.080000      in sec:     115200.
 not possible to compute, first iteration

 
 Time of computation ->  20191102.090000      in sec:     118800.
 not possible to compute, first iteration

 
 Time of computation ->  20191102.100000      in sec:     122400.
 not possible to compute, first iteration

 
 Time of computation ->  20191102.110000      in sec:     126000.
 not possible to compute, first iteration

 
 Time of computation ->  20191102.120000      in sec:     129600.
 not possible to compute, first iteration

 
 Time of computation ->  20191102.130000      in sec:     133200.
 not possible to compute, first iteration

 
 Time of computation ->  20191102.140000      in sec:     136800.
 not possible to compute, first iteration

 
 Time of computation ->  20191102.150000      in sec:     140400.
 not possible to compute, first iteration

 
 Time of computation ->  20191102.160000      in sec:     144000.
 not possible to compute, first iteration

 
 Time of computation ->  20191102.170000      in sec:     147600.
 not possible to compute, first iteration

 
 Time of computation ->  20191102.180000      in sec:     151200.
 not possible to compute, first iteration

 
 Time of computation ->  20191102.190000      in sec:     154800.
 not possible to compute, first iteration

 
 Time of computation ->  20191102.200000      in sec:     158400.
 not possible to compute, first iteration

 
 Time of computation ->  20191102.210000      in sec:     162000.
 not possible to compute, first iteration

 
 Time of computation ->  20191102.220000      in sec:     165600.
 not possible to compute, first iteration

 
 Time of computation ->  20191102.230000      in sec:     169200.
 not possible to compute, first iteration

 
 Time of computation ->  20191103.000000      in sec:     172800.
 not possible to compute, first iteration

 
 Time of computation ->  20191103.010000      in sec:     176400.
 not possible to compute, first iteration

 
 Time of computation ->  20191103.020000      in sec:     180000.
 not possible to compute, first iteration

 
 Time of computation ->  20191103.030000      in sec:     183600.
 not possible to compute, first iteration

 
 Time of computation ->  20191103.040000      in sec:     187200.
 not possible to compute, first iteration

 
 Time of computation ->  20191103.050000      in sec:     190800.
 not possible to compute, first iteration

 
 Time of computation ->  20191103.060000      in sec:     194400.
 not possible to compute, first iteration

 
 Time of computation ->  20191103.070000      in sec:     198000.
 not possible to compute, first iteration

 
 Time of computation ->  20191103.080000      in sec:     201600.
 not possible to compute, first iteration

 
 Time of computation ->  20191103.090000      in sec:     205200.
 not possible to compute, first iteration

 
 Time of computation ->  20191103.100000      in sec:     208800.
 not possible to compute, first iteration

 
 Time of computation ->  20191103.110000      in sec:     212400.
 not possible to compute, first iteration

 
 Time of computation ->  20191103.120000      in sec:     216000.
 not possible to compute, first iteration

 
 Time of computation ->  20191103.130000      in sec:     219600.
 not possible to compute, first iteration

 
 Time of computation ->  20191103.140000      in sec:     223200.
 not possible to compute, first iteration

 
 Time of computation ->  20191103.150000      in sec:     226800.
 not possible to compute, first iteration

 
 Time of computation ->  20191103.160000      in sec:     230400.
 not possible to compute, first iteration

 
 Time of computation ->  20191103.170000      in sec:     234000.
 not possible to compute, first iteration

 
 Time of computation ->  20191103.180000      in sec:     237600.
 not possible to compute, first iteration

 
 Time of computation ->  20191103.190000      in sec:     241200.
 not possible to compute, first iteration

 
 Time of computation ->  20191103.200000      in sec:     244800.
 not possible to compute, first iteration

 
 Time of computation ->  20191103.210000      in sec:     248400.
 not possible to compute, first iteration

 
 Time of computation ->  20191103.220000      in sec:     252000.
 not possible to compute, first iteration

 
 Time of computation ->  20191103.230000      in sec:     255600.
 not possible to compute, first iteration

 
 Time of computation ->  20191104.000000      in sec:     259200.
 not possible to compute, first iteration

 
 Time of computation ->  20191104.010000      in sec:     262800.
 not possible to compute, first iteration

 
 Time of computation ->  20191104.020000      in sec:     266400.
 not possible to compute, first iteration

 
 Time of computation ->  20191104.030000      in sec:     270000.
 not possible to compute, first iteration

 
 Time of computation ->  20191104.040000      in sec:     273600.
 not possible to compute, first iteration

 
 Time of computation ->  20191104.050000      in sec:     277200.
 not possible to compute, first iteration

 
 Time of computation ->  20191104.060000      in sec:     280800.
 not possible to compute, first iteration

 
 Time of computation ->  20191104.070000      in sec:     284400.
 not possible to compute, first iteration

 
 Time of computation ->  20191104.080000      in sec:     288000.
 not possible to compute, first iteration

 
 Time of computation ->  20191104.090000      in sec:     291600.
 not possible to compute, first iteration

 
 Time of computation ->  20191104.100000      in sec:     295200.
 not possible to compute, first iteration

 
 Time of computation ->  20191104.110000      in sec:     298800.
 not possible to compute, first iteration

 
 Time of computation ->  20191104.120000      in sec:     302400.
 not possible to compute, first iteration

 
 Time of computation ->  20191104.130000      in sec:     306000.
 not possible to compute, first iteration

 
 Time of computation ->  20191104.140000      in sec:     309600.
 not possible to compute, first iteration

 
 Time of computation ->  20191104.150000      in sec:     313200.
 not possible to compute, first iteration

 
 Time of computation ->  20191104.160000      in sec:     316800.
 not possible to compute, first iteration

 
 Time of computation ->  20191104.170000      in sec:     320400.
 not possible to compute, first iteration

 
 Time of computation ->  20191104.180000      in sec:     324000.
 not possible to compute, first iteration

 
 Time of computation ->  20191104.190000      in sec:     327600.
 not possible to compute, first iteration

 
 Time of computation ->  20191104.200000      in sec:     331200.
 not possible to compute, first iteration

 
 Time of computation ->  20191104.210000      in sec:     334800.
 not possible to compute, first iteration

 
 Time of computation ->  20191104.220000      in sec:     338400.
 not possible to compute, first iteration

 
 Time of computation ->  20191104.230000      in sec:     342000.
 not possible to compute, first iteration

 
 Time of computation ->  20191105.000000      in sec:     345600.
 not possible to compute, first iteration

 
 Time of computation ->  20191105.010000      in sec:     349200.
 not possible to compute, first iteration

 
 Time of computation ->  20191105.020000      in sec:     352800.
 not possible to compute, first iteration

 
 Time of computation ->  20191105.030000      in sec:     356400.
 not possible to compute, first iteration

 
 Time of computation ->  20191105.040000      in sec:     360000.
 not possible to compute, first iteration

 
 Time of computation ->  20191105.050000      in sec:     363600.
 not possible to compute, first iteration

 
 Time of computation ->  20191105.060000      in sec:     367200.
 not possible to compute, first iteration

 
 Time of computation ->  20191105.070000      in sec:     370800.
 not possible to compute, first iteration

 
 Time of computation ->  20191105.080000      in sec:     374400.
 not possible to compute, first iteration

 
 Time of computation ->  20191105.090000      in sec:     378000.
 not possible to compute, first iteration

 
 Time of computation ->  20191105.100000      in sec:     381600.
 not possible to compute, first iteration

 
 Time of computation ->  20191105.110000      in sec:     385200.
 not possible to compute, first iteration

 
 Time of computation ->  20191105.120000      in sec:     388800.
 not possible to compute, first iteration

 
 Time of computation ->  20191105.130000      in sec:     392400.
 not possible to compute, first iteration

 
 Time of computation ->  20191105.140000      in sec:     396000.
 not possible to compute, first iteration

 
 Time of computation ->  20191105.150000      in sec:     399600.
 not possible to compute, first iteration

 
 Time of computation ->  20191105.160000      in sec:     403200.
 not possible to compute, first iteration

 
 Time of computation ->  20191105.170000      in sec:     406800.
 not possible to compute, first iteration

 
 Time of computation ->  20191105.180000      in sec:     410400.
 not possible to compute, first iteration

 
 Time of computation ->  20191105.190000      in sec:     414000.
 not possible to compute, first iteration

 
 Time of computation ->  20191105.200000      in sec:     417600.
 not possible to compute, first iteration

 
 Time of computation ->  20191105.210000      in sec:     421200.
 not possible to compute, first iteration

 
 Time of computation ->  20191105.220000      in sec:     424800.
 not possible to compute, first iteration

 
 Time of computation ->  20191105.230000      in sec:     428400.
 not possible to compute, first iteration

 
 Time of computation ->  20191106.000000      in sec:     432000.
 not possible to compute, first iteration

 
 Time of computation ->  20191106.010000      in sec:     435600.
 not possible to compute, first iteration

 
 Time of computation ->  20191106.020000      in sec:     439200.
 not possible to compute, first iteration

 
 Time of computation ->  20191106.030000      in sec:     442800.
 not possible to compute, first iteration

 
 Time of computation ->  20191106.040000      in sec:     446400.
 not possible to compute, first iteration

 
 Time of computation ->  20191106.050000      in sec:     450000.
 not possible to compute, first iteration

 
 Time of computation ->  20191106.060000      in sec:     453600.
 not possible to compute, first iteration

 
 Time of computation ->  20191106.070000      in sec:     457200.
 not possible to compute, first iteration

 
 Time of computation ->  20191106.080000      in sec:     460800.
 not possible to compute, first iteration

 
 Time of computation ->  20191106.090000      in sec:     464400.
 not possible to compute, first iteration

 
 Time of computation ->  20191106.100000      in sec:     468000.
 not possible to compute, first iteration

 
 Time of computation ->  20191106.110000      in sec:     471600.
 not possible to compute, first iteration

 
 Time of computation ->  20191106.120000      in sec:     475200.
 not possible to compute, first iteration

 
 Time of computation ->  20191106.130000      in sec:     478800.
 not possible to compute, first iteration

 
 Time of computation ->  20191106.140000      in sec:     482400.
 not possible to compute, first iteration

 
 Time of computation ->  20191106.150000      in sec:     486000.
 not possible to compute, first iteration

 
 Time of computation ->  20191106.160000      in sec:     489600.
 not possible to compute, first iteration

 
 Time of computation ->  20191106.170000      in sec:     493200.
 not possible to compute, first iteration

 
 Time of computation ->  20191106.180000      in sec:     496800.
 not possible to compute, first iteration

 
 Time of computation ->  20191106.190000      in sec:     500400.
 not possible to compute, first iteration

 
 Time of computation ->  20191106.200000      in sec:     504000.
 not possible to compute, first iteration

 
 Time of computation ->  20191106.210000      in sec:     507600.
 not possible to compute, first iteration

 
 Time of computation ->  20191106.220000      in sec:     511200.
 not possible to compute, first iteration

 
 Time of computation ->  20191106.230000      in sec:     514800.
 not possible to compute, first iteration

 
 Time of computation ->  20191107.000000      in sec:     518400.
 not possible to compute, first iteration

 
 Time of computation ->  20191107.010000      in sec:     522000.
 not possible to compute, first iteration

 
 Time of computation ->  20191107.020000      in sec:     525600.
 not possible to compute, first iteration

 
 Time of computation ->  20191107.030000      in sec:     529200.
 not possible to compute, first iteration

 
 Time of computation ->  20191107.040000      in sec:     532800.
 not possible to compute, first iteration

 
 Time of computation ->  20191107.050000      in sec:     536400.
 not possible to compute, first iteration

 
 Time of computation ->  20191107.060000      in sec:     540000.
 not possible to compute, first iteration

 
 Time of computation ->  20191107.070000      in sec:     543600.
 not possible to compute, first iteration

 
 Time of computation ->  20191107.080000      in sec:     547200.
 not possible to compute, first iteration

 
 Time of computation ->  20191107.090000      in sec:     550800.
 not possible to compute, first iteration

 
 Time of computation ->  20191107.100000      in sec:     554400.
 not possible to compute, first iteration

 
 Time of computation ->  20191107.110000      in sec:     558000.
 not possible to compute, first iteration

 
 Time of computation ->  20191107.120000      in sec:     561600.
 not possible to compute, first iteration

 
 Time of computation ->  20191107.130000      in sec:     565200.
 not possible to compute, first iteration

 
 Time of computation ->  20191107.140000      in sec:     568800.
 not possible to compute, first iteration

 
 Time of computation ->  20191107.150000      in sec:     572400.
 not possible to compute, first iteration

 
 Time of computation ->  20191107.160000      in sec:     576000.
 not possible to compute, first iteration

 
 Time of computation ->  20191107.170000      in sec:     579600.
 not possible to compute, first iteration

 
 Time of computation ->  20191107.180000      in sec:     583200.
 not possible to compute, first iteration

 
 Time of computation ->  20191107.190000      in sec:     586800.
 not possible to compute, first iteration

 
 Time of computation ->  20191107.200000      in sec:     590400.
 not possible to compute, first iteration

 
 Time of computation ->  20191107.210000      in sec:     594000.
 not possible to compute, first iteration

 
 Time of computation ->  20191107.220000      in sec:     597600.
 not possible to compute, first iteration

 
 Time of computation ->  20191107.230000      in sec:     601200.
 not possible to compute, first iteration

 
 Time of computation ->  20191108.000000      in sec:     604800.
 not possible to compute, first iteration

 
 Time of computation ->  20191108.010000      in sec:     608400.
 not possible to compute, first iteration

 
 Time of computation ->  20191108.020000      in sec:     612000.
 not possible to compute, first iteration

 
 Time of computation ->  20191108.030000      in sec:     615600.
 not possible to compute, first iteration

 
 Time of computation ->  20191108.040000      in sec:     619200.
 not possible to compute, first iteration

 
 Time of computation ->  20191108.050000      in sec:     622800.
 not possible to compute, first iteration

 
 Time of computation ->  20191108.060000      in sec:     626400.
 not possible to compute, first iteration

 
 Time of computation ->  20191108.070000      in sec:     630000.
 not possible to compute, first iteration

 
 Time of computation ->  20191108.080000      in sec:     633600.
 not possible to compute, first iteration

 
 Time of computation ->  20191108.090000      in sec:     637200.
 not possible to compute, first iteration

 
 Time of computation ->  20191108.100000      in sec:     640800.
 not possible to compute, first iteration

 
 Time of computation ->  20191108.110000      in sec:     644400.
 not possible to compute, first iteration

 
 Time of computation ->  20191108.120000      in sec:     648000.
 not possible to compute, first iteration

 
 Time of computation ->  20191108.130000      in sec:     651600.
 not possible to compute, first iteration

 
 Time of computation ->  20191108.140000      in sec:     655200.
 not possible to compute, first iteration

 
 Time of computation ->  20191108.150000      in sec:     658800.
 not possible to compute, first iteration

 
 Time of computation ->  20191108.160000      in sec:     662400.
 not possible to compute, first iteration

 
 Time of computation ->  20191108.170000      in sec:     666000.
 not possible to compute, first iteration

 
 Time of computation ->  20191108.180000      in sec:     669600.
 not possible to compute, first iteration

 
 Time of computation ->  20191108.190000      in sec:     673200.
 not possible to compute, first iteration

 
 Time of computation ->  20191108.200000      in sec:     676800.
 not possible to compute, first iteration

 
 Time of computation ->  20191108.210000      in sec:     680400.
 not possible to compute, first iteration

 
 Time of computation ->  20191108.220000      in sec:     684000.
 not possible to compute, first iteration

 
 Time of computation ->  20191108.230000      in sec:     687600.
 not possible to compute, first iteration

 
 Time of computation ->  20191109.000000      in sec:     691200.
 not possible to compute, first iteration

 
 Time of computation ->  20191109.010000      in sec:     694800.
 not possible to compute, first iteration

 
 Time of computation ->  20191109.020000      in sec:     698400.
 not possible to compute, first iteration

 
 Time of computation ->  20191109.030000      in sec:     702000.
 not possible to compute, first iteration

 
 Time of computation ->  20191109.040000      in sec:     705600.
 not possible to compute, first iteration

 
 Time of computation ->  20191109.050000      in sec:     709200.
 not possible to compute, first iteration

 
 Time of computation ->  20191109.060000      in sec:     712800.
 not possible to compute, first iteration

 
 Time of computation ->  20191109.070000      in sec:     716400.
 not possible to compute, first iteration

 
 Time of computation ->  20191109.080000      in sec:     720000.
 not possible to compute, first iteration

 
 Time of computation ->  20191109.090000      in sec:     723600.
 not possible to compute, first iteration

 
 Time of computation ->  20191109.100000      in sec:     727200.
 not possible to compute, first iteration

 
 Time of computation ->  20191109.110000      in sec:     730800.
 not possible to compute, first iteration

 
 Time of computation ->  20191109.120000      in sec:     734400.
 not possible to compute, first iteration

 
 Time of computation ->  20191109.130000      in sec:     738000.
 not possible to compute, first iteration

 
 Time of computation ->  20191109.140000      in sec:     741600.
 not possible to compute, first iteration

 
 Time of computation ->  20191109.150000      in sec:     745200.
 not possible to compute, first iteration

 
 Time of computation ->  20191109.160000      in sec:     748800.
 not possible to compute, first iteration

 
 Time of computation ->  20191109.170000      in sec:     752400.
 not possible to compute, first iteration

 
 Time of computation ->  20191109.180000      in sec:     756000.
 not possible to compute, first iteration

 
 Time of computation ->  20191109.190000      in sec:     759600.
 not possible to compute, first iteration

 
 Time of computation ->  20191109.200000      in sec:     763200.
 not possible to compute, first iteration

 
 Time of computation ->  20191109.210000      in sec:     766800.
 not possible to compute, first iteration

 
 Time of computation ->  20191109.220000      in sec:     770400.
 not possible to compute, first iteration

 
 Time of computation ->  20191109.230000      in sec:     774000.
 not possible to compute, first iteration

 
 Time of computation ->  20191110.000000      in sec:     777600.
 not possible to compute, first iteration

 
 Time of computation ->  20191110.010000      in sec:     781200.
 not possible to compute, first iteration

 
 Time of computation ->  20191110.020000      in sec:     784800.
 not possible to compute, first iteration

 
 Time of computation ->  20191110.030000      in sec:     788400.
 not possible to compute, first iteration

 
 Time of computation ->  20191110.040000      in sec:     792000.
 not possible to compute, first iteration

 
 Time of computation ->  20191110.050000      in sec:     795600.
 not possible to compute, first iteration

 
 Time of computation ->  20191110.060000      in sec:     799200.
 not possible to compute, first iteration

 
 Time of computation ->  20191110.070000      in sec:     802800.
 not possible to compute, first iteration

 
 Time of computation ->  20191110.080000      in sec:     806400.
 not possible to compute, first iteration

 
 Time of computation ->  20191110.090000      in sec:     810000.
 not possible to compute, first iteration

 
 Time of computation ->  20191110.100000      in sec:     813600.
 not possible to compute, first iteration

 
 Time of computation ->  20191110.110000      in sec:     817200.
 not possible to compute, first iteration

 
 Time of computation ->  20191110.120000      in sec:     820800.
 not possible to compute, first iteration

 
 Time of computation ->  20191110.130000      in sec:     824400.
 not possible to compute, first iteration

 
 Time of computation ->  20191110.140000      in sec:     828000.
 not possible to compute, first iteration

 
 Time of computation ->  20191110.150000      in sec:     831600.
 not possible to compute, first iteration

 
 Time of computation ->  20191110.160000      in sec:     835200.
 not possible to compute, first iteration

 
 Time of computation ->  20191110.170000      in sec:     838800.
 not possible to compute, first iteration

 
 Time of computation ->  20191110.180000      in sec:     842400.
 not possible to compute, first iteration

 
 Time of computation ->  20191110.190000      in sec:     846000.
 not possible to compute, first iteration

 
 Time of computation ->  20191110.200000      in sec:     849600.
 not possible to compute, first iteration

 
 Time of computation ->  20191110.210000      in sec:     853200.
 not possible to compute, first iteration

 
 Time of computation ->  20191110.220000      in sec:     856800.
 not possible to compute, first iteration

 
 Time of computation ->  20191110.230000      in sec:     860400.
 not possible to compute, first iteration

 
 Time of computation ->  20191111.000000      in sec:     864000.
 not possible to compute, first iteration

 
 Time of computation ->  20191111.010000      in sec:     867600.
 not possible to compute, first iteration

 
 Time of computation ->  20191111.020000      in sec:     871200.
 not possible to compute, first iteration

 
 Time of computation ->  20191111.030000      in sec:     874800.
 not possible to compute, first iteration

 
 Time of computation ->  20191111.040000      in sec:     878400.
 not possible to compute, first iteration

 
 Time of computation ->  20191111.050000      in sec:     882000.
 not possible to compute, first iteration

 
 Time of computation ->  20191111.060000      in sec:     885600.
 not possible to compute, first iteration

 
 Time of computation ->  20191111.070000      in sec:     889200.
 not possible to compute, first iteration

 
 Time of computation ->  20191111.080000      in sec:     892800.
 not possible to compute, first iteration

 
 Time of computation ->  20191111.090000      in sec:     896400.
 not possible to compute, first iteration

 
 Time of computation ->  20191111.100000      in sec:     900000.
 not possible to compute, first iteration

 
 Time of computation ->  20191111.110000      in sec:     903600.
 not possible to compute, first iteration

 
 Time of computation ->  20191111.120000      in sec:     907200.
 not possible to compute, first iteration

 
 Time of computation ->  20191111.130000      in sec:     910800.
 not possible to compute, first iteration

 
 Time of computation ->  20191111.140000      in sec:     914400.
 not possible to compute, first iteration

 
 Time of computation ->  20191111.150000      in sec:     918000.
 not possible to compute, first iteration

 
 Time of computation ->  20191111.160000      in sec:     921600.
 not possible to compute, first iteration

 
 Time of computation ->  20191111.170000      in sec:     925200.
 not possible to compute, first iteration

 
 Time of computation ->  20191111.180000      in sec:     928800.
 not possible to compute, first iteration

 
 Time of computation ->  20191111.190000      in sec:     932400.
 not possible to compute, first iteration

 
 Time of computation ->  20191111.200000      in sec:     936000.
 not possible to compute, first iteration

 
 Time of computation ->  20191111.210000      in sec:     939600.
 not possible to compute, first iteration

 
 Time of computation ->  20191111.220000      in sec:     943200.
 not possible to compute, first iteration

 
 Time of computation ->  20191111.230000      in sec:     946800.
 not possible to compute, first iteration

 
 Time of computation ->  20191112.000000      in sec:     950400.
 not possible to compute, first iteration

 
 Time of computation ->  20191112.010000      in sec:     954000.
 not possible to compute, first iteration

 
 Time of computation ->  20191112.020000      in sec:     957600.
 not possible to compute, first iteration

 
 Time of computation ->  20191112.030000      in sec:     961200.
 not possible to compute, first iteration

 
 Time of computation ->  20191112.040000      in sec:     964800.
 not possible to compute, first iteration

 
 Time of computation ->  20191112.050000      in sec:     968400.
 not possible to compute, first iteration

 
 Time of computation ->  20191112.060000      in sec:     972000.
 not possible to compute, first iteration

 
 Time of computation ->  20191112.070000      in sec:     975600.
 not possible to compute, first iteration

 
 Time of computation ->  20191112.080000      in sec:     979200.
 not possible to compute, first iteration

 
 Time of computation ->  20191112.090000      in sec:     982800.
 not possible to compute, first iteration

 
 Time of computation ->  20191112.100000      in sec:     986400.
 not possible to compute, first iteration

 
 Time of computation ->  20191112.110000      in sec:     990000.
 not possible to compute, first iteration

 
 Time of computation ->  20191112.120000      in sec:     993600.
 not possible to compute, first iteration

 
 Time of computation ->  20191112.130000      in sec:     997200.
 not possible to compute, first iteration

 
 Time of computation ->  20191112.140000      in sec:    1000800.
 not possible to compute, first iteration

 
 Time of computation ->  20191112.150000      in sec:    1004400.
 not possible to compute, first iteration

 
 Time of computation ->  20191112.160000      in sec:    1008000.
 not possible to compute, first iteration

 
 Time of computation ->  20191112.170000      in sec:    1011600.
 not possible to compute, first iteration

 
 Time of computation ->  20191112.180000      in sec:    1015200.
 not possible to compute, first iteration

 
 Time of computation ->  20191112.190000      in sec:    1018800.
 not possible to compute, first iteration

 
 Time of computation ->  20191112.200000      in sec:    1022400.
 not possible to compute, first iteration

 
 Time of computation ->  20191112.210000      in sec:    1026000.
 not possible to compute, first iteration

 
 Time of computation ->  20191112.220000      in sec:    1029600.
 not possible to compute, first iteration

 
 Time of computation ->  20191112.230000      in sec:    1033200.
 not possible to compute, first iteration

 
 Time of computation ->  20191113.000000      in sec:    1036800.
 not possible to compute, first iteration

 
 Time of computation ->  20191113.010000      in sec:    1040400.
 not possible to compute, first iteration

 
 Time of computation ->  20191113.020000      in sec:    1044000.
 not possible to compute, first iteration

 
 Time of computation ->  20191113.030000      in sec:    1047600.
 not possible to compute, first iteration

 
 Time of computation ->  20191113.040000      in sec:    1051200.
 not possible to compute, first iteration

 
 Time of computation ->  20191113.050000      in sec:    1054800.
 not possible to compute, first iteration

 
 Time of computation ->  20191113.060000      in sec:    1058400.
 not possible to compute, first iteration

 
 Time of computation ->  20191113.070000      in sec:    1062000.
 not possible to compute, first iteration

 
 Time of computation ->  20191113.080000      in sec:    1065600.
 not possible to compute, first iteration

 
 Time of computation ->  20191113.090000      in sec:    1069200.
 not possible to compute, first iteration

 
 Time of computation ->  20191113.100000      in sec:    1072800.
 not possible to compute, first iteration

 
 Time of computation ->  20191113.110000      in sec:    1076400.
 not possible to compute, first iteration

 
 Time of computation ->  20191113.120000      in sec:    1080000.
 not possible to compute, first iteration

 
 Time of computation ->  20191113.130000      in sec:    1083600.
 not possible to compute, first iteration

 
 Time of computation ->  20191113.140000      in sec:    1087200.
 not possible to compute, first iteration

 
 Time of computation ->  20191113.150000      in sec:    1090800.
 not possible to compute, first iteration

 
 Time of computation ->  20191113.160000      in sec:    1094400.
 not possible to compute, first iteration

 
 Time of computation ->  20191113.170000      in sec:    1098000.
 not possible to compute, first iteration

 
 Time of computation ->  20191113.180000      in sec:    1101600.
 not possible to compute, first iteration

 
 Time of computation ->  20191113.190000      in sec:    1105200.
 not possible to compute, first iteration

 
 Time of computation ->  20191113.200000      in sec:    1108800.
 not possible to compute, first iteration

 
 Time of computation ->  20191113.210000      in sec:    1112400.
 not possible to compute, first iteration

 
 Time of computation ->  20191113.220000      in sec:    1116000.
 not possible to compute, first iteration

 
 Time of computation ->  20191113.230000      in sec:    1119600.
 not possible to compute, first iteration

 
 Time of computation ->  20191114.000000      in sec:    1123200.
 not possible to compute, first iteration

 
 Time of computation ->  20191114.010000      in sec:    1126800.
 not possible to compute, first iteration

 
 Time of computation ->  20191114.020000      in sec:    1130400.
 not possible to compute, first iteration

 
 Time of computation ->  20191114.030000      in sec:    1134000.
 not possible to compute, first iteration

 
 Time of computation ->  20191114.040000      in sec:    1137600.
 not possible to compute, first iteration

 
 Time of computation ->  20191114.050000      in sec:    1141200.
 not possible to compute, first iteration

 
 Time of computation ->  20191114.060000      in sec:    1144800.
 not possible to compute, first iteration

 
 Time of computation ->  20191114.070000      in sec:    1148400.
 not possible to compute, first iteration

 
 Time of computation ->  20191114.080000      in sec:    1152000.
 not possible to compute, first iteration

 
 Time of computation ->  20191114.090000      in sec:    1155600.
 not possible to compute, first iteration

 
 Time of computation ->  20191114.100000      in sec:    1159200.
 not possible to compute, first iteration

 
 Time of computation ->  20191114.110000      in sec:    1162800.
 not possible to compute, first iteration

 
 Time of computation ->  20191114.120000      in sec:    1166400.
 not possible to compute, first iteration

 
 Time of computation ->  20191114.130000      in sec:    1170000.
 not possible to compute, first iteration

 
 Time of computation ->  20191114.140000      in sec:    1173600.
 not possible to compute, first iteration

 
 Time of computation ->  20191114.150000      in sec:    1177200.
 not possible to compute, first iteration

 
 Time of computation ->  20191114.160000      in sec:    1180800.
 not possible to compute, first iteration

 
 Time of computation ->  20191114.170000      in sec:    1184400.
 not possible to compute, first iteration

 
 Time of computation ->  20191114.180000      in sec:    1188000.
 not possible to compute, first iteration

 
 Time of computation ->  20191114.190000      in sec:    1191600.
 not possible to compute, first iteration

 
 Time of computation ->  20191114.200000      in sec:    1195200.
 not possible to compute, first iteration

 
 Time of computation ->  20191114.210000      in sec:    1198800.
 not possible to compute, first iteration

 
 Time of computation ->  20191114.220000      in sec:    1202400.
 not possible to compute, first iteration

 
 Time of computation ->  20191114.230000      in sec:    1206000.
 not possible to compute, first iteration

 
 Time of computation ->  20191115.000000      in sec:    1209600.
 not possible to compute, first iteration

 
 Time of computation ->  20191115.010000      in sec:    1213200.
 not possible to compute, first iteration

 
 Time of computation ->  20191115.020000      in sec:    1216800.
 not possible to compute, first iteration

 
 Time of computation ->  20191115.030000      in sec:    1220400.
 not possible to compute, first iteration

 
 Time of computation ->  20191115.040000      in sec:    1224000.
 not possible to compute, first iteration

 
 Time of computation ->  20191115.050000      in sec:    1227600.
 not possible to compute, first iteration

 
 Time of computation ->  20191115.060000      in sec:    1231200.
 not possible to compute, first iteration

 
 Time of computation ->  20191115.070000      in sec:    1234800.
 not possible to compute, first iteration

 
 Time of computation ->  20191115.080000      in sec:    1238400.
 not possible to compute, first iteration

 
 Time of computation ->  20191115.090000      in sec:    1242000.
 not possible to compute, first iteration

 
 Time of computation ->  20191115.100000      in sec:    1245600.
 not possible to compute, first iteration

 
 Time of computation ->  20191115.110000      in sec:    1249200.
 not possible to compute, first iteration

 
 Time of computation ->  20191115.120000      in sec:    1252800.
 not possible to compute, first iteration

 
 Time of computation ->  20191115.130000      in sec:    1256400.
 not possible to compute, first iteration

 
 Time of computation ->  20191115.140000      in sec:    1260000.
 not possible to compute, first iteration

 
 Time of computation ->  20191115.150000      in sec:    1263600.
 not possible to compute, first iteration

 
 Time of computation ->  20191115.160000      in sec:    1267200.
 not possible to compute, first iteration

 
 Time of computation ->  20191115.170000      in sec:    1270800.
 not possible to compute, first iteration

 
 Time of computation ->  20191115.180000      in sec:    1274400.
 not possible to compute, first iteration

 
 Time of computation ->  20191115.190000      in sec:    1278000.
 not possible to compute, first iteration

 
 Time of computation ->  20191115.200000      in sec:    1281600.
 not possible to compute, first iteration

 
 Time of computation ->  20191115.210000      in sec:    1285200.
 not possible to compute, first iteration

 
 Time of computation ->  20191115.220000      in sec:    1288800.
 not possible to compute, first iteration

 
 Time of computation ->  20191115.230000      in sec:    1292400.
 not possible to compute, first iteration

 
 Time of computation ->  20191116.000000      in sec:    1296000.
 not possible to compute, first iteration

 
 Time of computation ->  20191116.010000      in sec:    1299600.
 not possible to compute, first iteration

 
 Time of computation ->  20191116.020000      in sec:    1303200.
 not possible to compute, first iteration

 
 Time of computation ->  20191116.030000      in sec:    1306800.
 not possible to compute, first iteration

 
 Time of computation ->  20191116.040000      in sec:    1310400.
 not possible to compute, first iteration

 
 Time of computation ->  20191116.050000      in sec:    1314000.
 not possible to compute, first iteration

 
 Time of computation ->  20191116.060000      in sec:    1317600.
 not possible to compute, first iteration

 
 Time of computation ->  20191116.070000      in sec:    1321200.
 not possible to compute, first iteration

 
 Time of computation ->  20191116.080000      in sec:    1324800.
 not possible to compute, first iteration

 
 Time of computation ->  20191116.090000      in sec:    1328400.
 not possible to compute, first iteration

 
 Time of computation ->  20191116.100000      in sec:    1332000.
 not possible to compute, first iteration

 
 Time of computation ->  20191116.110000      in sec:    1335600.
 not possible to compute, first iteration

 
 Time of computation ->  20191116.120000      in sec:    1339200.
 not possible to compute, first iteration

 
 Time of computation ->  20191116.130000      in sec:    1342800.
 not possible to compute, first iteration

 
 Time of computation ->  20191116.140000      in sec:    1346400.
 not possible to compute, first iteration

 
 Time of computation ->  20191116.150000      in sec:    1350000.
 not possible to compute, first iteration

 
 Time of computation ->  20191116.160000      in sec:    1353600.
 not possible to compute, first iteration

 
 Time of computation ->  20191116.170000      in sec:    1357200.
 not possible to compute, first iteration

 
 Time of computation ->  20191116.180000      in sec:    1360800.
 not possible to compute, first iteration

 
 Time of computation ->  20191116.190000      in sec:    1364400.
 not possible to compute, first iteration

 
 Time of computation ->  20191116.200000      in sec:    1368000.
 not possible to compute, first iteration

 
 Time of computation ->  20191116.210000      in sec:    1371600.
 not possible to compute, first iteration

 
 Time of computation ->  20191116.220000      in sec:    1375200.
 not possible to compute, first iteration

 
 Time of computation ->  20191116.230000      in sec:    1378800.
 not possible to compute, first iteration

 
 Time of computation ->  20191117.000000      in sec:    1382400.
 not possible to compute, first iteration

 
 Time of computation ->  20191117.010000      in sec:    1386000.
 not possible to compute, first iteration

 
 Time of computation ->  20191117.020000      in sec:    1389600.
 not possible to compute, first iteration

 
 Time of computation ->  20191117.030000      in sec:    1393200.
 not possible to compute, first iteration

 
 Time of computation ->  20191117.040000      in sec:    1396800.
 not possible to compute, first iteration

 
 Time of computation ->  20191117.050000      in sec:    1400400.
 not possible to compute, first iteration

 
 Time of computation ->  20191117.060000      in sec:    1404000.
 not possible to compute, first iteration

 
 Time of computation ->  20191117.070000      in sec:    1407600.
 not possible to compute, first iteration

 
 Time of computation ->  20191117.080000      in sec:    1411200.
 not possible to compute, first iteration

 
 Time of computation ->  20191117.090000      in sec:    1414800.
 not possible to compute, first iteration

 
 Time of computation ->  20191117.100000      in sec:    1418400.
 not possible to compute, first iteration

 
 Time of computation ->  20191117.110000      in sec:    1422000.
 not possible to compute, first iteration

 
 Time of computation ->  20191117.120000      in sec:    1425600.
 not possible to compute, first iteration

 
 Time of computation ->  20191117.130000      in sec:    1429200.
 not possible to compute, first iteration

 
 Time of computation ->  20191117.140000      in sec:    1432800.
 not possible to compute, first iteration

 
 Time of computation ->  20191117.150000      in sec:    1436400.
 not possible to compute, first iteration

 
 Time of computation ->  20191117.160000      in sec:    1440000.
 not possible to compute, first iteration

 
 Time of computation ->  20191117.170000      in sec:    1443600.
 not possible to compute, first iteration

 
 Time of computation ->  20191117.180000      in sec:    1447200.
 not possible to compute, first iteration

 
 Time of computation ->  20191117.190000      in sec:    1450800.
 not possible to compute, first iteration

 
 Time of computation ->  20191117.200000      in sec:    1454400.
 not possible to compute, first iteration

 
 Time of computation ->  20191117.210000      in sec:    1458000.
 not possible to compute, first iteration

 
 Time of computation ->  20191117.220000      in sec:    1461600.
 not possible to compute, first iteration

 
 Time of computation ->  20191117.230000      in sec:    1465200.
 not possible to compute, first iteration

 
 Time of computation ->  20191118.000000      in sec:    1468800.
 not possible to compute, first iteration

 
 Time of computation ->  20191118.010000      in sec:    1472400.
 not possible to compute, first iteration

 
 Time of computation ->  20191118.020000      in sec:    1476000.
 not possible to compute, first iteration

 
 Time of computation ->  20191118.030000      in sec:    1479600.
 not possible to compute, first iteration

 
 Time of computation ->  20191118.040000      in sec:    1483200.
 not possible to compute, first iteration

 
 Time of computation ->  20191118.050000      in sec:    1486800.
 not possible to compute, first iteration

 
 Time of computation ->  20191118.060000      in sec:    1490400.
 not possible to compute, first iteration

 
 Time of computation ->  20191118.070000      in sec:    1494000.
 not possible to compute, first iteration

 
 Time of computation ->  20191118.080000      in sec:    1497600.
 not possible to compute, first iteration

 
 Time of computation ->  20191118.090000      in sec:    1501200.
 not possible to compute, first iteration

 
 Time of computation ->  20191118.100000      in sec:    1504800.
 not possible to compute, first iteration

 
 Time of computation ->  20191118.110000      in sec:    1508400.
 not possible to compute, first iteration

 
 Time of computation ->  20191118.120000      in sec:    1512000.
 not possible to compute, first iteration

 
 Time of computation ->  20191118.130000      in sec:    1515600.
 not possible to compute, first iteration

 
 Time of computation ->  20191118.140000      in sec:    1519200.
 not possible to compute, first iteration

 
 Time of computation ->  20191118.150000      in sec:    1522800.
 not possible to compute, first iteration

 
 Time of computation ->  20191118.160000      in sec:    1526400.
 not possible to compute, first iteration

 
 Time of computation ->  20191118.170000      in sec:    1530000.
 not possible to compute, first iteration

 
 Time of computation ->  20191118.180000      in sec:    1533600.
 not possible to compute, first iteration

 
 Time of computation ->  20191118.190000      in sec:    1537200.
 not possible to compute, first iteration

 
 Time of computation ->  20191118.200000      in sec:    1540800.
 not possible to compute, first iteration

 
 Time of computation ->  20191118.210000      in sec:    1544400.
 not possible to compute, first iteration

 
 Time of computation ->  20191118.220000      in sec:    1548000.
 not possible to compute, first iteration

 
 Time of computation ->  20191118.230000      in sec:    1551600.
 not possible to compute, first iteration

 
 Time of computation ->  20191119.000000      in sec:    1555200.
 not possible to compute, first iteration

 
 Time of computation ->  20191119.010000      in sec:    1558800.
 not possible to compute, first iteration

 
 Time of computation ->  20191119.020000      in sec:    1562400.
 not possible to compute, first iteration

 
 Time of computation ->  20191119.030000      in sec:    1566000.
 not possible to compute, first iteration

 
 Time of computation ->  20191119.040000      in sec:    1569600.
 not possible to compute, first iteration

 
 Time of computation ->  20191119.050000      in sec:    1573200.
 not possible to compute, first iteration

 
 Time of computation ->  20191119.060000      in sec:    1576800.
 not possible to compute, first iteration

 
 Time of computation ->  20191119.070000      in sec:    1580400.
 not possible to compute, first iteration

 
 Time of computation ->  20191119.080000      in sec:    1584000.
 not possible to compute, first iteration

 
 Time of computation ->  20191119.090000      in sec:    1587600.
 not possible to compute, first iteration

 
 Time of computation ->  20191119.100000      in sec:    1591200.
 not possible to compute, first iteration

 
 Time of computation ->  20191119.110000      in sec:    1594800.
 not possible to compute, first iteration

 
 Time of computation ->  20191119.120000      in sec:    1598400.
 not possible to compute, first iteration

 
 Time of computation ->  20191119.130000      in sec:    1602000.
 not possible to compute, first iteration

 
 Time of computation ->  20191119.140000      in sec:    1605600.
 not possible to compute, first iteration

 
 Time of computation ->  20191119.150000      in sec:    1609200.
 not possible to compute, first iteration

 
 Time of computation ->  20191119.160000      in sec:    1612800.
 not possible to compute, first iteration

 
 Time of computation ->  20191119.170000      in sec:    1616400.
 not possible to compute, first iteration

 
 Time of computation ->  20191119.180000      in sec:    1620000.
 not possible to compute, first iteration

 
 Time of computation ->  20191119.190000      in sec:    1623600.
 not possible to compute, first iteration

 
 Time of computation ->  20191119.200000      in sec:    1627200.
 not possible to compute, first iteration

 
 Time of computation ->  20191119.210000      in sec:    1630800.
 not possible to compute, first iteration

 
 Time of computation ->  20191119.220000      in sec:    1634400.
 not possible to compute, first iteration

 
 Time of computation ->  20191119.230000      in sec:    1638000.
 not possible to compute, first iteration

 
 Time of computation ->  20191120.000000      in sec:    1641600.
 not possible to compute, first iteration

 
 Time of computation ->  20191120.010000      in sec:    1645200.
 not possible to compute, first iteration

 
 Time of computation ->  20191120.020000      in sec:    1648800.
 not possible to compute, first iteration

 
 Time of computation ->  20191120.030000      in sec:    1652400.
 not possible to compute, first iteration

 
 Time of computation ->  20191120.040000      in sec:    1656000.
 not possible to compute, first iteration

 
 Time of computation ->  20191120.050000      in sec:    1659600.
 not possible to compute, first iteration

 
 Time of computation ->  20191120.060000      in sec:    1663200.
 not possible to compute, first iteration

 
 Time of computation ->  20191120.070000      in sec:    1666800.
 not possible to compute, first iteration

 
 Time of computation ->  20191120.080000      in sec:    1670400.
 not possible to compute, first iteration

 
 Time of computation ->  20191120.090000      in sec:    1674000.
 not possible to compute, first iteration

 
 Time of computation ->  20191120.100000      in sec:    1677600.
 not possible to compute, first iteration

 
 Time of computation ->  20191120.110000      in sec:    1681200.
 not possible to compute, first iteration

 
 Time of computation ->  20191120.120000      in sec:    1684800.
 not possible to compute, first iteration

 
 Time of computation ->  20191120.130000      in sec:    1688400.
 not possible to compute, first iteration

 
 Time of computation ->  20191120.140000      in sec:    1692000.
 not possible to compute, first iteration

 
 Time of computation ->  20191120.150000      in sec:    1695600.
 not possible to compute, first iteration

 
 Time of computation ->  20191120.160000      in sec:    1699200.
 not possible to compute, first iteration

 
 Time of computation ->  20191120.170000      in sec:    1702800.
 not possible to compute, first iteration

 
 Time of computation ->  20191120.180000      in sec:    1706400.
 not possible to compute, first iteration

 
 Time of computation ->  20191120.190000      in sec:    1710000.
 not possible to compute, first iteration

 
 Time of computation ->  20191120.200000      in sec:    1713600.
 not possible to compute, first iteration

 
 Time of computation ->  20191120.210000      in sec:    1717200.
 not possible to compute, first iteration

 
 Time of computation ->  20191120.220000      in sec:    1720800.
 not possible to compute, first iteration

 
 Time of computation ->  20191120.230000      in sec:    1724400.
 not possible to compute, first iteration

 
 Time of computation ->  20191121.000000      in sec:    1728000.
 not possible to compute, first iteration

 
 Time of computation ->  20191121.010000      in sec:    1731600.
 not possible to compute, first iteration

 
 Time of computation ->  20191121.020000      in sec:    1735200.
 not possible to compute, first iteration

 
 Time of computation ->  20191121.030000      in sec:    1738800.
 not possible to compute, first iteration

 
 Time of computation ->  20191121.040000      in sec:    1742400.
 not possible to compute, first iteration

 
 Time of computation ->  20191121.050000      in sec:    1746000.
 not possible to compute, first iteration

 
 Time of computation ->  20191121.060000      in sec:    1749600.
 not possible to compute, first iteration

 
 Time of computation ->  20191121.070000      in sec:    1753200.
 not possible to compute, first iteration

 
 Time of computation ->  20191121.080000      in sec:    1756800.
 not possible to compute, first iteration

 
 Time of computation ->  20191121.090000      in sec:    1760400.
 not possible to compute, first iteration

 
 Time of computation ->  20191121.100000      in sec:    1764000.
 not possible to compute, first iteration

 
 Time of computation ->  20191121.110000      in sec:    1767600.
 not possible to compute, first iteration

 
 Time of computation ->  20191121.120000      in sec:    1771200.
 not possible to compute, first iteration

 
 Time of computation ->  20191121.130000      in sec:    1774800.
 not possible to compute, first iteration

 
 Time of computation ->  20191121.140000      in sec:    1778400.
 not possible to compute, first iteration

 
 Time of computation ->  20191121.150000      in sec:    1782000.
 not possible to compute, first iteration

 
 Time of computation ->  20191121.160000      in sec:    1785600.
 not possible to compute, first iteration

 
 Time of computation ->  20191121.170000      in sec:    1789200.
 not possible to compute, first iteration

 
 Time of computation ->  20191121.180000      in sec:    1792800.
 not possible to compute, first iteration

 
 Time of computation ->  20191121.190000      in sec:    1796400.
 not possible to compute, first iteration

 
 Time of computation ->  20191121.200000      in sec:    1800000.
 not possible to compute, first iteration

 
 Time of computation ->  20191121.210000      in sec:    1803600.
 not possible to compute, first iteration

 
 Time of computation ->  20191121.220000      in sec:    1807200.
 not possible to compute, first iteration

 
 Time of computation ->  20191121.230000      in sec:    1810800.
 not possible to compute, first iteration

 
 Time of computation ->  20191122.000000      in sec:    1814400.
 not possible to compute, first iteration

 
 Time of computation ->  20191122.010000      in sec:    1818000.
 not possible to compute, first iteration

 
 Time of computation ->  20191122.020000      in sec:    1821600.
 not possible to compute, first iteration

 
 Time of computation ->  20191122.030000      in sec:    1825200.
 not possible to compute, first iteration

 
 Time of computation ->  20191122.040000      in sec:    1828800.
 not possible to compute, first iteration

 
 Time of computation ->  20191122.050000      in sec:    1832400.
 not possible to compute, first iteration

 
 Time of computation ->  20191122.060000      in sec:    1836000.
 not possible to compute, first iteration

 
 Time of computation ->  20191122.070000      in sec:    1839600.
 not possible to compute, first iteration

 
 Time of computation ->  20191122.080000      in sec:    1843200.
 not possible to compute, first iteration

 
 Time of computation ->  20191122.090000      in sec:    1846800.
 not possible to compute, first iteration

 
 Time of computation ->  20191122.100000      in sec:    1850400.
 not possible to compute, first iteration

 
 Time of computation ->  20191122.110000      in sec:    1854000.
 not possible to compute, first iteration

 
 Time of computation ->  20191122.120000      in sec:    1857600.
 not possible to compute, first iteration

 
 Time of computation ->  20191122.130000      in sec:    1861200.
 not possible to compute, first iteration

 
 Time of computation ->  20191122.140000      in sec:    1864800.
 not possible to compute, first iteration

 
 Time of computation ->  20191122.150000      in sec:    1868400.
 not possible to compute, first iteration

 
 Time of computation ->  20191122.160000      in sec:    1872000.
 not possible to compute, first iteration

 
 Time of computation ->  20191122.170000      in sec:    1875600.
 not possible to compute, first iteration

 
 Time of computation ->  20191122.180000      in sec:    1879200.
 not possible to compute, first iteration

 
 Time of computation ->  20191122.190000      in sec:    1882800.
 not possible to compute, first iteration

 
 Time of computation ->  20191122.200000      in sec:    1886400.
 not possible to compute, first iteration

 
 Time of computation ->  20191122.210000      in sec:    1890000.
 not possible to compute, first iteration

 
 Time of computation ->  20191122.220000      in sec:    1893600.
 not possible to compute, first iteration

 
 Time of computation ->  20191122.230000      in sec:    1897200.
 not possible to compute, first iteration

 
 Time of computation ->  20191123.000000      in sec:    1900800.
 not possible to compute, first iteration

 
 Time of computation ->  20191123.010000      in sec:    1904400.
 not possible to compute, first iteration

 
 Time of computation ->  20191123.020000      in sec:    1908000.
 not possible to compute, first iteration

 
 Time of computation ->  20191123.030000      in sec:    1911600.
 not possible to compute, first iteration

 
 Time of computation ->  20191123.040000      in sec:    1915200.
 not possible to compute, first iteration

 
 Time of computation ->  20191123.050000      in sec:    1918800.
 not possible to compute, first iteration

 
 Time of computation ->  20191123.060000      in sec:    1922400.
 not possible to compute, first iteration

 
 Time of computation ->  20191123.070000      in sec:    1926000.
 not possible to compute, first iteration

 
 Time of computation ->  20191123.080000      in sec:    1929600.
 not possible to compute, first iteration

 
 Time of computation ->  20191123.090000      in sec:    1933200.
 not possible to compute, first iteration

 
 Time of computation ->  20191123.100000      in sec:    1936800.
 not possible to compute, first iteration

 
 Time of computation ->  20191123.110000      in sec:    1940400.
 not possible to compute, first iteration

 
 Time of computation ->  20191123.120000      in sec:    1944000.
 not possible to compute, first iteration

 
 Time of computation ->  20191123.130000      in sec:    1947600.
 not possible to compute, first iteration

 
 Time of computation ->  20191123.140000      in sec:    1951200.
 not possible to compute, first iteration

 
 Time of computation ->  20191123.150000      in sec:    1954800.
 not possible to compute, first iteration

 
 Time of computation ->  20191123.160000      in sec:    1958400.
 not possible to compute, first iteration

 
 Time of computation ->  20191123.170000      in sec:    1962000.
 not possible to compute, first iteration

 
 Time of computation ->  20191123.180000      in sec:    1965600.
 not possible to compute, first iteration

 
 Time of computation ->  20191123.190000      in sec:    1969200.
 not possible to compute, first iteration

 
 Time of computation ->  20191123.200000      in sec:    1972800.
 not possible to compute, first iteration

 
 Time of computation ->  20191123.210000      in sec:    1976400.
 not possible to compute, first iteration

 
 Time of computation ->  20191123.220000      in sec:    1980000.
 not possible to compute, first iteration

 
 Time of computation ->  20191123.230000      in sec:    1983600.
 not possible to compute, first iteration

 
 Time of computation ->  20191124.000000      in sec:    1987200.
 not possible to compute, first iteration

 
 Time of computation ->  20191124.010000      in sec:    1990800.
 not possible to compute, first iteration

 
 Time of computation ->  20191124.020000      in sec:    1994400.
 not possible to compute, first iteration

 
 Time of computation ->  20191124.030000      in sec:    1998000.
 not possible to compute, first iteration

 
 Time of computation ->  20191124.040000      in sec:    2001600.
 not possible to compute, first iteration

 
 Time of computation ->  20191124.050000      in sec:    2005200.
 not possible to compute, first iteration

 
 Time of computation ->  20191124.060000      in sec:    2008800.
 not possible to compute, first iteration

 
 Time of computation ->  20191124.070000      in sec:    2012400.
 not possible to compute, first iteration

 
 Time of computation ->  20191124.080000      in sec:    2016000.
 not possible to compute, first iteration

 
 Time of computation ->  20191124.090000      in sec:    2019600.
 not possible to compute, first iteration

 
 Time of computation ->  20191124.100000      in sec:    2023200.
 not possible to compute, first iteration

 
 Time of computation ->  20191124.110000      in sec:    2026800.
 not possible to compute, first iteration

 
 Time of computation ->  20191124.120000      in sec:    2030400.
 not possible to compute, first iteration

 
 Time of computation ->  20191124.130000      in sec:    2034000.
 not possible to compute, first iteration

 
 Time of computation ->  20191124.140000      in sec:    2037600.
 not possible to compute, first iteration

 
 Time of computation ->  20191124.150000      in sec:    2041200.
 not possible to compute, first iteration

 
 Time of computation ->  20191124.160000      in sec:    2044800.
 not possible to compute, first iteration

 
 Time of computation ->  20191124.170000      in sec:    2048400.
 not possible to compute, first iteration

 
 Time of computation ->  20191124.180000      in sec:    2052000.
 not possible to compute, first iteration

 
 Time of computation ->  20191124.190000      in sec:    2055600.
 not possible to compute, first iteration

 
 Time of computation ->  20191124.200000      in sec:    2059200.
 not possible to compute, first iteration

 
 Time of computation ->  20191124.210000      in sec:    2062800.
 not possible to compute, first iteration

 
 Time of computation ->  20191124.220000      in sec:    2066400.
 not possible to compute, first iteration

 
 Time of computation ->  20191124.230000      in sec:    2070000.
 not possible to compute, first iteration

 
 Time of computation ->  20191125.000000      in sec:    2073600.
 not possible to compute, first iteration

 
 Time of computation ->  20191125.010000      in sec:    2077200.
 not possible to compute, first iteration

 
 Time of computation ->  20191125.020000      in sec:    2080800.
 not possible to compute, first iteration

 
 Time of computation ->  20191125.030000      in sec:    2084400.
 not possible to compute, first iteration

 
 Time of computation ->  20191125.040000      in sec:    2088000.
 not possible to compute, first iteration

 
 Time of computation ->  20191125.050000      in sec:    2091600.
 not possible to compute, first iteration

 
 Time of computation ->  20191125.060000      in sec:    2095200.
 not possible to compute, first iteration

 
 Time of computation ->  20191125.070000      in sec:    2098800.
 not possible to compute, first iteration

 
 Time of computation ->  20191125.080000      in sec:    2102400.
 not possible to compute, first iteration

 
 Time of computation ->  20191125.090000      in sec:    2106000.
 not possible to compute, first iteration

 
 Time of computation ->  20191125.100000      in sec:    2109600.
 not possible to compute, first iteration

 
 Time of computation ->  20191125.110000      in sec:    2113200.
 not possible to compute, first iteration

 
 Time of computation ->  20191125.120000      in sec:    2116800.
 not possible to compute, first iteration

 
 Time of computation ->  20191125.130000      in sec:    2120400.
 not possible to compute, first iteration

 
 Time of computation ->  20191125.140000      in sec:    2124000.
 not possible to compute, first iteration

 
 Time of computation ->  20191125.150000      in sec:    2127600.
 not possible to compute, first iteration

 
 Time of computation ->  20191125.160000      in sec:    2131200.
 not possible to compute, first iteration

 
 Time of computation ->  20191125.170000      in sec:    2134800.
 not possible to compute, first iteration

 
 Time of computation ->  20191125.180000      in sec:    2138400.
 not possible to compute, first iteration

 
 Time of computation ->  20191125.190000      in sec:    2142000.
 not possible to compute, first iteration

 
 Time of computation ->  20191125.200000      in sec:    2145600.
 not possible to compute, first iteration

 
 Time of computation ->  20191125.210000      in sec:    2149200.
 not possible to compute, first iteration

 
 Time of computation ->  20191125.220000      in sec:    2152800.
 not possible to compute, first iteration

 
 Time of computation ->  20191125.230000      in sec:    2156400.
 not possible to compute, first iteration

 
 Time of computation ->  20191126.000000      in sec:    2160000.
 not possible to compute, first iteration

 
 Time of computation ->  20191126.010000      in sec:    2163600.
 not possible to compute, first iteration

 
 Time of computation ->  20191126.020000      in sec:    2167200.
 not possible to compute, first iteration

 
 Time of computation ->  20191126.030000      in sec:    2170800.
 not possible to compute, first iteration

 
 Time of computation ->  20191126.040000      in sec:    2174400.
 not possible to compute, first iteration

 
 Time of computation ->  20191126.050000      in sec:    2178000.
 not possible to compute, first iteration

 
 Time of computation ->  20191126.060000      in sec:    2181600.
 not possible to compute, first iteration

 
 Time of computation ->  20191126.070000      in sec:    2185200.
 not possible to compute, first iteration

 
 Time of computation ->  20191126.080000      in sec:    2188800.
 not possible to compute, first iteration

 
 Time of computation ->  20191126.090000      in sec:    2192400.
 not possible to compute, first iteration

 
 Time of computation ->  20191126.100000      in sec:    2196000.
 not possible to compute, first iteration

 
 Time of computation ->  20191126.110000      in sec:    2199600.
 not possible to compute, first iteration

 
 Time of computation ->  20191126.120000      in sec:    2203200.
 not possible to compute, first iteration

 
 Time of computation ->  20191126.130000      in sec:    2206800.
 not possible to compute, first iteration

 
 Time of computation ->  20191126.140000      in sec:    2210400.
 not possible to compute, first iteration

 
 Time of computation ->  20191126.150000      in sec:    2214000.
 not possible to compute, first iteration

 
 Time of computation ->  20191126.160000      in sec:    2217600.
 not possible to compute, first iteration

 
 Time of computation ->  20191126.170000      in sec:    2221200.
 not possible to compute, first iteration

 
 Time of computation ->  20191126.180000      in sec:    2224800.
 not possible to compute, first iteration

 
 Time of computation ->  20191126.190000      in sec:    2228400.
 not possible to compute, first iteration

 
 Time of computation ->  20191126.200000      in sec:    2232000.
 not possible to compute, first iteration

 
 Time of computation ->  20191126.210000      in sec:    2235600.
 not possible to compute, first iteration

 
 Time of computation ->  20191126.220000      in sec:    2239200.
 not possible to compute, first iteration

 
 Time of computation ->  20191126.230000      in sec:    2242800.
 not possible to compute, first iteration

 
 Time of computation ->  20191127.000000      in sec:    2246400.
 not possible to compute, first iteration

 
 Time of computation ->  20191127.010000      in sec:    2250000.
 not possible to compute, first iteration

 
 Time of computation ->  20191127.020000      in sec:    2253600.
 not possible to compute, first iteration

 
 Time of computation ->  20191127.030000      in sec:    2257200.
 not possible to compute, first iteration

 
 Time of computation ->  20191127.040000      in sec:    2260800.
 not possible to compute, first iteration

 
 Time of computation ->  20191127.050000      in sec:    2264400.
 not possible to compute, first iteration

 
 Time of computation ->  20191127.060000      in sec:    2268000.
 not possible to compute, first iteration

 
 Time of computation ->  20191127.070000      in sec:    2271600.
 not possible to compute, first iteration

 
 Time of computation ->  20191127.080000      in sec:    2275200.
 not possible to compute, first iteration

 
 Time of computation ->  20191127.090000      in sec:    2278800.
 not possible to compute, first iteration

 
 Time of computation ->  20191127.100000      in sec:    2282400.
 not possible to compute, first iteration

 
 Time of computation ->  20191127.110000      in sec:    2286000.
 not possible to compute, first iteration

 
 Time of computation ->  20191127.120000      in sec:    2289600.
 not possible to compute, first iteration

 
 Time of computation ->  20191127.130000      in sec:    2293200.
 not possible to compute, first iteration

 
 Time of computation ->  20191127.140000      in sec:    2296800.
 not possible to compute, first iteration

 
 Time of computation ->  20191127.150000      in sec:    2300400.
 not possible to compute, first iteration

 
 Time of computation ->  20191127.160000      in sec:    2304000.
 not possible to compute, first iteration

 
 Time of computation ->  20191127.170000      in sec:    2307600.
 not possible to compute, first iteration

 
 Time of computation ->  20191127.180000      in sec:    2311200.
 not possible to compute, first iteration

 
 Time of computation ->  20191127.190000      in sec:    2314800.
 not possible to compute, first iteration

 
 Time of computation ->  20191127.200000      in sec:    2318400.
 not possible to compute, first iteration

 
 Time of computation ->  20191127.210000      in sec:    2322000.
 not possible to compute, first iteration

 
 Time of computation ->  20191127.220000      in sec:    2325600.
 not possible to compute, first iteration

 
 Time of computation ->  20191127.230000      in sec:    2329200.
 not possible to compute, first iteration

 
 Time of computation ->  20191128.000000      in sec:    2332800.
 not possible to compute, first iteration

 
 Time of computation ->  20191128.010000      in sec:    2336400.
 not possible to compute, first iteration

 
 Time of computation ->  20191128.020000      in sec:    2340000.
 not possible to compute, first iteration

 
 Time of computation ->  20191128.030000      in sec:    2343600.
 not possible to compute, first iteration

 
 Time of computation ->  20191128.040000      in sec:    2347200.
 not possible to compute, first iteration

 
 Time of computation ->  20191128.050000      in sec:    2350800.
 not possible to compute, first iteration

 
 Time of computation ->  20191128.060000      in sec:    2354400.
 not possible to compute, first iteration

 
 Time of computation ->  20191128.070000      in sec:    2358000.
 not possible to compute, first iteration

 
 Time of computation ->  20191128.080000      in sec:    2361600.
 not possible to compute, first iteration

 
 Time of computation ->  20191128.090000      in sec:    2365200.
 not possible to compute, first iteration

 
 Time of computation ->  20191128.100000      in sec:    2368800.
 not possible to compute, first iteration

 
 Time of computation ->  20191128.110000      in sec:    2372400.
 not possible to compute, first iteration

 
 Time of computation ->  20191128.120000      in sec:    2376000.
 not possible to compute, first iteration

 
 Time of computation ->  20191128.130000      in sec:    2379600.
 not possible to compute, first iteration

 
 Time of computation ->  20191128.140000      in sec:    2383200.
 not possible to compute, first iteration

 
 Time of computation ->  20191128.150000      in sec:    2386800.
 not possible to compute, first iteration

 
 Time of computation ->  20191128.160000      in sec:    2390400.
 not possible to compute, first iteration

 
 Time of computation ->  20191128.170000      in sec:    2394000.
 not possible to compute, first iteration

 
 Time of computation ->  20191128.180000      in sec:    2397600.
 not possible to compute, first iteration

 
 Time of computation ->  20191128.190000      in sec:    2401200.
 not possible to compute, first iteration

 
 Time of computation ->  20191128.200000      in sec:    2404800.
 not possible to compute, first iteration

 
 Time of computation ->  20191128.210000      in sec:    2408400.
 not possible to compute, first iteration

 
[...]

 
 Time of computation ->  20211224.130000      in sec:   67784400.
 not possible to compute, first iteration

 
 Time of computation ->  20211224.140000      in sec:   67788000.
 not possible to compute, first iteration

 
 Time of computation ->  20211224.150000      in sec:   67791600.
 not possible to compute, first iteration

 
 Time of computation ->  20211224.160000      in sec:   67795200.
 not possible to compute, first iteration

 
 Time of computation ->  20211224.170000      in sec:   67798800.
 not possible to compute, first iteration

 
 Time of computation ->  20211224.180000      in sec:   67802400.
 not possible to compute, first iteration

 
 Time of computation ->  20211224.190000      in sec:   67806000.
 not possible to compute, first iteration

 
 Time of computation ->  20211224.200000      in sec:   67809600.
 not possible to compute, first iteration

 
 Time of computation ->  20211224.210000      in sec:   67813200.
 not possible to compute, first iteration

 
 Time of computation ->  20211224.220000      in sec:   67816800.
 not possible to compute, first iteration

 
 Time of computation ->  20211224.230000      in sec:   67820400.
 not possible to compute, first iteration

 
 Time of computation ->  20211225.000000      in sec:   67824000.
 not possible to compute, first iteration

 
 Time of computation ->  20211225.010000      in sec:   67827600.
 not possible to compute, first iteration

 
 Time of computation ->  20211225.020000      in sec:   67831200.
 not possible to compute, first iteration

 
 Time of computation ->  20211225.030000      in sec:   67834800.
 not possible to compute, first iteration

 
 Time of computation ->  20211225.040000      in sec:   67838400.
 not possible to compute, first iteration

 
 Time of computation ->  20211225.050000      in sec:   67842000.
 not possible to compute, first iteration

 
 Time of computation ->  20211225.060000      in sec:   67845600.
 not possible to compute, first iteration

 
 Time of computation ->  20211225.070000      in sec:   67849200.
 not possible to compute, first iteration

 
 Time of computation ->  20211225.080000      in sec:   67852800.
 not possible to compute, first iteration

 
 Time of computation ->  20211225.090000      in sec:   67856400.
 not possible to compute, first iteration

 
 Time of computation ->  20211225.100000      in sec:   67860000.
 not possible to compute, first iteration

 
 Time of computation ->  20211225.110000      in sec:   67863600.
 not possible to compute, first iteration

 
 Time of computation ->  20211225.120000      in sec:   67867200.
 not possible to compute, first iteration

 
 Time of computation ->  20211225.130000      in sec:   67870800.
 not possible to compute, first iteration

 
 Time of computation ->  20211225.140000      in sec:   67874400.
 not possible to compute, first iteration

 
 Time of computation ->  20211225.150000      in sec:   67878000.
 not possible to compute, first iteration

 
 Time of computation ->  20211225.160000      in sec:   67881600.
 not possible to compute, first iteration

 
 Time of computation ->  20211225.170000      in sec:   67885200.
 not possible to compute, first iteration

 
 Time of computation ->  20211225.180000      in sec:   67888800.
 not possible to compute, first iteration

 
 Time of computation ->  20211225.190000      in sec:   67892400.
 not possible to compute, first iteration

 
 Time of computation ->  20211225.200000      in sec:   67896000.
 not possible to compute, first iteration

 
 Time of computation ->  20211225.210000      in sec:   67899600.
 not possible to compute, first iteration

 
 Time of computation ->  20211225.220000      in sec:   67903200.
 not possible to compute, first iteration

 
 Time of computation ->  20211225.230000      in sec:   67906800.
 not possible to compute, first iteration

 
 Time of computation ->  20211226.000000      in sec:   67910400.
 not possible to compute, first iteration

 
 Time of computation ->  20211226.010000      in sec:   67914000.
 not possible to compute, first iteration

 
 Time of computation ->  20211226.020000      in sec:   67917600.
 not possible to compute, first iteration

 
 Time of computation ->  20211226.030000      in sec:   67921200.
 not possible to compute, first iteration

 
 Time of computation ->  20211226.040000      in sec:   67924800.
 not possible to compute, first iteration

 
 Time of computation ->  20211226.050000      in sec:   67928400.
 not possible to compute, first iteration

 
 Time of computation ->  20211226.060000      in sec:   67932000.
 not possible to compute, first iteration

 
 Time of computation ->  20211226.070000      in sec:   67935600.
 not possible to compute, first iteration

 
 Time of computation ->  20211226.080000      in sec:   67939200.
 not possible to compute, first iteration

 
 Time of computation ->  20211226.090000      in sec:   67942800.
 not possible to compute, first iteration

 
 Time of computation ->  20211226.100000      in sec:   67946400.
 not possible to compute, first iteration

 
 Time of computation ->  20211226.110000      in sec:   67950000.
 not possible to compute, first iteration

 
 Time of computation ->  20211226.120000      in sec:   67953600.
 not possible to compute, first iteration

 
 Time of computation ->  20211226.130000      in sec:   67957200.
 not possible to compute, first iteration

 
 Time of computation ->  20211226.140000      in sec:   67960800.
 not possible to compute, first iteration

 
 Time of computation ->  20211226.150000      in sec:   67964400.
 not possible to compute, first iteration

 
 Time of computation ->  20211226.160000      in sec:   67968000.
 not possible to compute, first iteration

 
 Time of computation ->  20211226.170000      in sec:   67971600.
 not possible to compute, first iteration

 
 Time of computation ->  20211226.180000      in sec:   67975200.
 not possible to compute, first iteration

 
 Time of computation ->  20211226.190000      in sec:   67978800.
 not possible to compute, first iteration

 
 Time of computation ->  20211226.200000      in sec:   67982400.
 not possible to compute, first iteration

 
 Time of computation ->  20211226.210000      in sec:   67986000.
 not possible to compute, first iteration

 
 Time of computation ->  20211226.220000      in sec:   67989600.
 not possible to compute, first iteration

 
 Time of computation ->  20211226.230000      in sec:   67993200.
 not possible to compute, first iteration

 
 Time of computation ->  20211227.000000      in sec:   67996800.
 not possible to compute, first iteration

 
 Time of computation ->  20211227.010000      in sec:   68000400.
 not possible to compute, first iteration

 
 Time of computation ->  20211227.020000      in sec:   68004000.
 not possible to compute, first iteration

 
 Time of computation ->  20211227.030000      in sec:   68007600.
 not possible to compute, first iteration

 
 Time of computation ->  20211227.040000      in sec:   68011200.
 not possible to compute, first iteration

 
 Time of computation ->  20211227.050000      in sec:   68014800.
 not possible to compute, first iteration

 
 Time of computation ->  20211227.060000      in sec:   68018400.
 not possible to compute, first iteration

 
 Time of computation ->  20211227.070000      in sec:   68022000.
 not possible to compute, first iteration

 
 Time of computation ->  20211227.080000      in sec:   68025600.
 not possible to compute, first iteration

 
 Time of computation ->  20211227.090000      in sec:   68029200.
 not possible to compute, first iteration

 
 Time of computation ->  20211227.100000      in sec:   68032800.
 not possible to compute, first iteration

 
 Time of computation ->  20211227.110000      in sec:   68036400.
 not possible to compute, first iteration

 
 Time of computation ->  20211227.120000      in sec:   68040000.
 not possible to compute, first iteration

 
 Time of computation ->  20211227.130000      in sec:   68043600.
 not possible to compute, first iteration

 
 Time of computation ->  20211227.140000      in sec:   68047200.
 not possible to compute, first iteration

 
 Time of computation ->  20211227.150000      in sec:   68050800.
 not possible to compute, first iteration

 
 Time of computation ->  20211227.160000      in sec:   68054400.
 not possible to compute, first iteration

 
 Time of computation ->  20211227.170000      in sec:   68058000.
 not possible to compute, first iteration

 
 Time of computation ->  20211227.180000      in sec:   68061600.
 not possible to compute, first iteration

 
 Time of computation ->  20211227.190000      in sec:   68065200.
 not possible to compute, first iteration

 
 Time of computation ->  20211227.200000      in sec:   68068800.
 not possible to compute, first iteration

 
 Time of computation ->  20211227.210000      in sec:   68072400.
 not possible to compute, first iteration

 
 Time of computation ->  20211227.220000      in sec:   68076000.
 not possible to compute, first iteration

 
 Time of computation ->  20211227.230000      in sec:   68079600.
 not possible to compute, first iteration

 
 Time of computation ->  20211228.000000      in sec:   68083200.
 not possible to compute, first iteration

 
 Time of computation ->  20211228.010000      in sec:   68086800.
 not possible to compute, first iteration

 
 Time of computation ->  20211228.020000      in sec:   68090400.
 not possible to compute, first iteration

 
 Time of computation ->  20211228.030000      in sec:   68094000.
 not possible to compute, first iteration

 
 Time of computation ->  20211228.040000      in sec:   68097600.
 not possible to compute, first iteration

 
 Time of computation ->  20211228.050000      in sec:   68101200.
 not possible to compute, first iteration

 
 Time of computation ->  20211228.060000      in sec:   68104800.
 not possible to compute, first iteration

 
 Time of computation ->  20211228.070000      in sec:   68108400.
 not possible to compute, first iteration

 
 Time of computation ->  20211228.080000      in sec:   68112000.
 not possible to compute, first iteration

 
 Time of computation ->  20211228.090000      in sec:   68115600.
 not possible to compute, first iteration

 
 Time of computation ->  20211228.100000      in sec:   68119200.
 not possible to compute, first iteration

 
 Time of computation ->  20211228.110000      in sec:   68122800.
 not possible to compute, first iteration

 
 Time of computation ->  20211228.120000      in sec:   68126400.
 not possible to compute, first iteration

 
 Time of computation ->  20211228.130000      in sec:   68130000.
 not possible to compute, first iteration

 
 Time of computation ->  20211228.140000      in sec:   68133600.
 not possible to compute, first iteration

 
 Time of computation ->  20211228.150000      in sec:   68137200.
 not possible to compute, first iteration

 
 Time of computation ->  20211228.160000      in sec:   68140800.
 not possible to compute, first iteration

 
 Time of computation ->  20211228.170000      in sec:   68144400.
 not possible to compute, first iteration

 
 Time of computation ->  20211228.180000      in sec:   68148000.
 not possible to compute, first iteration

 
 Time of computation ->  20211228.190000      in sec:   68151600.
 not possible to compute, first iteration

 
 Time of computation ->  20211228.200000      in sec:   68155200.
 not possible to compute, first iteration

 
 Time of computation ->  20211228.210000      in sec:   68158800.
 not possible to compute, first iteration

 
 Time of computation ->  20211228.220000      in sec:   68162400.
 not possible to compute, first iteration

 
 Time of computation ->  20211228.230000      in sec:   68166000.
 not possible to compute, first iteration

 
 Time of computation ->  20211229.000000      in sec:   68169600.
 not possible to compute, first iteration

 
 Time of computation ->  20211229.010000      in sec:   68173200.
 not possible to compute, first iteration

 
 Time of computation ->  20211229.020000      in sec:   68176800.
 not possible to compute, first iteration

 
 Time of computation ->  20211229.030000      in sec:   68180400.
 not possible to compute, first iteration

 
 Time of computation ->  20211229.040000      in sec:   68184000.
 not possible to compute, first iteration

 
 Time of computation ->  20211229.050000      in sec:   68187600.
 not possible to compute, first iteration

 
 Time of computation ->  20211229.060000      in sec:   68191200.
 not possible to compute, first iteration

 
 Time of computation ->  20211229.070000      in sec:   68194800.
 not possible to compute, first iteration

 
 Time of computation ->  20211229.080000      in sec:   68198400.
 not possible to compute, first iteration

 
 Time of computation ->  20211229.090000      in sec:   68202000.
 not possible to compute, first iteration

 
 Time of computation ->  20211229.100000      in sec:   68205600.
 not possible to compute, first iteration

 
 Time of computation ->  20211229.110000      in sec:   68209200.
 not possible to compute, first iteration

 
 Time of computation ->  20211229.120000      in sec:   68212800.
 not possible to compute, first iteration

 
 Time of computation ->  20211229.130000      in sec:   68216400.
 not possible to compute, first iteration

 
 Time of computation ->  20211229.140000      in sec:   68220000.
 not possible to compute, first iteration

 
 Time of computation ->  20211229.150000      in sec:   68223600.
 not possible to compute, first iteration

 
 Time of computation ->  20211229.160000      in sec:   68227200.
 not possible to compute, first iteration

 
 Time of computation ->  20211229.170000      in sec:   68230800.
 not possible to compute, first iteration

 
 Time of computation ->  20211229.180000      in sec:   68234400.
 not possible to compute, first iteration

 
 Time of computation ->  20211229.190000      in sec:   68238000.
 not possible to compute, first iteration

 
 Time of computation ->  20211229.200000      in sec:   68241600.
 not possible to compute, first iteration

 
 Time of computation ->  20211229.210000      in sec:   68245200.
 not possible to compute, first iteration

 
 Time of computation ->  20211229.220000      in sec:   68248800.
 not possible to compute, first iteration

 
 Time of computation ->  20211229.230000      in sec:   68252400.
 not possible to compute, first iteration

 
 Time of computation ->  20211230.000000      in sec:   68256000.
 not possible to compute, first iteration

 
 Time of computation ->  20211230.010000      in sec:   68259600.
 not possible to compute, first iteration

 
 Time of computation ->  20211230.020000      in sec:   68263200.
 not possible to compute, first iteration

 
 Time of computation ->  20211230.030000      in sec:   68266800.
 not possible to compute, first iteration

 
 Time of computation ->  20211230.040000      in sec:   68270400.
 not possible to compute, first iteration

 
 Time of computation ->  20211230.050000      in sec:   68274000.
 not possible to compute, first iteration

 
 Time of computation ->  20211230.060000      in sec:   68277600.
 not possible to compute, first iteration

 
 Time of computation ->  20211230.070000      in sec:   68281200.
 not possible to compute, first iteration

 
 Time of computation ->  20211230.080000      in sec:   68284800.
 not possible to compute, first iteration

 
 Time of computation ->  20211230.090000      in sec:   68288400.
 not possible to compute, first iteration

 
 Time of computation ->  20211230.100000      in sec:   68292000.
 not possible to compute, first iteration

 
 Time of computation ->  20211230.110000      in sec:   68295600.
 not possible to compute, first iteration

 
 Time of computation ->  20211230.120000      in sec:   68299200.
 not possible to compute, first iteration

 
 Time of computation ->  20211230.130000      in sec:   68302800.
 not possible to compute, first iteration

 
 Time of computation ->  20211230.140000      in sec:   68306400.
 not possible to compute, first iteration

 
 Time of computation ->  20211230.150000      in sec:   68310000.
 not possible to compute, first iteration

 
 Time of computation ->  20211230.160000      in sec:   68313600.
 not possible to compute, first iteration

 
 Time of computation ->  20211230.170000      in sec:   68317200.
 not possible to compute, first iteration

 
 Time of computation ->  20211230.180000      in sec:   68320800.
 not possible to compute, first iteration

 
 Time of computation ->  20211230.190000      in sec:   68324400.
 not possible to compute, first iteration

 
 Time of computation ->  20211230.200000      in sec:   68328000.
 not possible to compute, first iteration

 
 Time of computation ->  20211230.210000      in sec:   68331600.
 not possible to compute, first iteration

 
 Time of computation ->  20211230.220000      in sec:   68335200.
 not possible to compute, first iteration

 
 Time of computation ->  20211230.230000      in sec:   68338800.
 not possible to compute, first iteration

 
 Time of computation ->  20211231.000000      in sec:   68342400.
 not possible to compute, first iteration

 
 Time of computation ->  20211231.010000      in sec:   68346000.
 not possible to compute, first iteration

 
 Time of computation ->  20211231.020000      in sec:   68349600.
 not possible to compute, first iteration

 
 Time of computation ->  20211231.030000      in sec:   68353200.
 not possible to compute, first iteration

 
 Time of computation ->  20211231.040000      in sec:   68356800.
 not possible to compute, first iteration

 
 Time of computation ->  20211231.050000      in sec:   68360400.
 not possible to compute, first iteration

 
 Time of computation ->  20211231.060000      in sec:   68364000.
 not possible to compute, first iteration

 
 Time of computation ->  20211231.070000      in sec:   68367600.
 not possible to compute, first iteration

 
 Time of computation ->  20211231.080000      in sec:   68371200.
 not possible to compute, first iteration

 
 Time of computation ->  20211231.090000      in sec:   68374800.
 not possible to compute, first iteration

 
 Time of computation ->  20211231.100000      in sec:   68378400.
 not possible to compute, first iteration

 
 Time of computation ->  20211231.110000      in sec:   68382000.
 not possible to compute, first iteration

 
 Time of computation ->  20211231.120000      in sec:   68385600.
 not possible to compute, first iteration

 
 Time of computation ->  20211231.130000      in sec:   68389200.
 not possible to compute, first iteration

 
 Time of computation ->  20211231.140000      in sec:   68392800.
 not possible to compute, first iteration

 
 Time of computation ->  20211231.150000      in sec:   68396400.
 not possible to compute, first iteration

 
 Time of computation ->  20211231.160000      in sec:   68400000.
 not possible to compute, first iteration

 
 Time of computation ->  20211231.170000      in sec:   68403600.
 not possible to compute, first iteration

 
 Time of computation ->  20211231.180000      in sec:   68407200.
 not possible to compute, first iteration

 
 Time of computation ->  20211231.190000      in sec:   68410800.
 not possible to compute, first iteration

 
 Time of computation ->  20211231.200000      in sec:   68414400.
 not possible to compute, first iteration

 
 Time of computation ->  20211231.210000      in sec:   68418000.
 not possible to compute, first iteration

 
 Time of computation ->  20211231.220000      in sec:   68421600.
 not possible to compute, first iteration

 
 Time of computation ->  20211231.230000      in sec:   68425200.
 not possible to compute, first iteration

 
 Time of computation ->  20220101.000000      in sec:   68428800.
 not possible to compute, first iteration

 
